# Packages
 &PACKAGES
 useOBCS=.FALSE.,
 useDiagnostics=.TRUE.,
 useMNC=.TRUE.,
 usePTRACERS=.TRUE.,
 &
